! This hub-height wind-speed file was generated by TurbSim (v2.00.07a-bjj, 14-Jun-2016) on 22-Dec-2020 at 21:03:03.
!
! The requested statistics for this data were:
!    Mean Total Wind Speed =   10.000 m/s
!    Turbulence Intensity  =   15.720%
!
!   Time  HorSpd  WndDir  VerSpd  HorShr  VerShr  LnVShr  GstSpd
!  (sec)   (m/s)   (deg)   (m/s)     (-)     (-)     (-)   (m/s)
   0.000    9.25   -1.63   -0.17   0.000   0.000   0.000    0.00
   0.100    9.43   -2.74   -0.29   0.000   0.000   0.000    0.00
   0.200    9.41   -1.45   -0.53   0.000   0.000   0.000    0.00
   0.300    9.16   -4.42   -0.18   0.000   0.000   0.000    0.00
   0.400    9.27   -5.88   -0.07   0.000   0.000   0.000    0.00
   0.500    9.23   -5.42    0.02   0.000   0.000   0.000    0.00
   0.600    9.96   -6.34    0.43   0.000   0.000   0.000    0.00
   0.700   10.36   -3.71    0.14   0.000   0.000   0.000    0.00
   0.800   10.01   -0.43   -0.33   0.000   0.000   0.000    0.00
   0.900    9.84    1.18    0.26   0.000   0.000   0.000    0.00
   1.000   10.05   -0.13    0.46   0.000   0.000   0.000    0.00
   1.100   10.38    2.05   -0.22   0.000   0.000   0.000    0.00
   1.200   10.72    2.69   -0.48   0.000   0.000   0.000    0.00
   1.300   10.70    2.50   -0.98   0.000   0.000   0.000    0.00
   1.400   10.69    2.38   -1.04   0.000   0.000   0.000    0.00
   1.500   10.94    1.19   -0.63   0.000   0.000   0.000    0.00
   1.600   10.61   -2.23   -0.13   0.000   0.000   0.000    0.00
   1.700   10.20   -3.90   -0.60   0.000   0.000   0.000    0.00
   1.800   10.38   -4.23   -0.52   0.000   0.000   0.000    0.00
   1.900   10.32   -2.99   -0.81   0.000   0.000   0.000    0.00
   2.000   10.47   -1.05   -0.61   0.000   0.000   0.000    0.00
   2.100   10.40   -3.42   -0.71   0.000   0.000   0.000    0.00
   2.200   10.51   -1.25   -0.73   0.000   0.000   0.000    0.00
   2.300   11.20    1.20   -0.71   0.000   0.000   0.000    0.00
   2.400   11.04   -0.53   -0.52   0.000   0.000   0.000    0.00
   2.500   10.63    1.75   -0.55   0.000   0.000   0.000    0.00
   2.600   10.65    3.86   -0.35   0.000   0.000   0.000    0.00
   2.700   10.45    1.63    0.14   0.000   0.000   0.000    0.00
   2.800   10.52    0.99   -0.06   0.000   0.000   0.000    0.00
   2.900   10.70    0.75   -0.36   0.000   0.000   0.000    0.00
   3.000   10.69    0.56    0.31   0.000   0.000   0.000    0.00
   3.100   11.11   -0.92    0.33   0.000   0.000   0.000    0.00
   3.200   11.04   -3.87    0.48   0.000   0.000   0.000    0.00
   3.300   10.50   -4.03    0.42   0.000   0.000   0.000    0.00
   3.400   10.76    0.40   -0.28   0.000   0.000   0.000    0.00
   3.500   10.83   -1.03    0.03   0.000   0.000   0.000    0.00
   3.600   11.47   -0.11   -0.47   0.000   0.000   0.000    0.00
   3.700   11.39    2.68   -0.68   0.000   0.000   0.000    0.00
   3.800   11.01    2.71   -1.37   0.000   0.000   0.000    0.00
   3.900   11.00    4.78   -1.00   0.000   0.000   0.000    0.00
   4.000   11.39    4.04   -0.41   0.000   0.000   0.000    0.00
   4.100   11.37    1.26   -0.50   0.000   0.000   0.000    0.00
   4.200   11.37    2.14   -0.09   0.000   0.000   0.000    0.00
   4.300   11.49    2.68    0.10   0.000   0.000   0.000    0.00
   4.400   11.33    3.46    0.15   0.000   0.000   0.000    0.00
   4.500   11.01    4.56   -0.47   0.000   0.000   0.000    0.00
   4.600   11.10    0.63   -1.13   0.000   0.000   0.000    0.00
   4.700   10.75    3.87   -1.09   0.000   0.000   0.000    0.00
   4.800   10.72    2.06   -1.04   0.000   0.000   0.000    0.00
   4.900   10.76   -0.42   -1.11   0.000   0.000   0.000    0.00
   5.000   10.37    1.04   -1.59   0.000   0.000   0.000    0.00
   5.100   10.93    1.39   -1.79   0.000   0.000   0.000    0.00
   5.200   10.46    1.72   -1.19   0.000   0.000   0.000    0.00
   5.300   10.54    3.00   -1.18   0.000   0.000   0.000    0.00
   5.400    9.99    3.57   -1.09   0.000   0.000   0.000    0.00
   5.500   10.11    5.98   -1.15   0.000   0.000   0.000    0.00
   5.600    9.55    4.82   -1.42   0.000   0.000   0.000    0.00
   5.700    9.92    3.89   -1.47   0.000   0.000   0.000    0.00
   5.800    9.72    2.22   -0.59   0.000   0.000   0.000    0.00
   5.900    9.48    0.75   -0.65   0.000   0.000   0.000    0.00
   6.000    9.74    3.11   -1.23   0.000   0.000   0.000    0.00
   6.100    9.77    4.25   -1.46   0.000   0.000   0.000    0.00
   6.200    9.60    4.58   -1.28   0.000   0.000   0.000    0.00
   6.300    9.72    3.39   -1.07   0.000   0.000   0.000    0.00
   6.400    9.81    3.12   -0.96   0.000   0.000   0.000    0.00
   6.500   10.14    3.83   -0.57   0.000   0.000   0.000    0.00
   6.600   10.12    4.22   -0.77   0.000   0.000   0.000    0.00
   6.700   10.36    3.06   -0.66   0.000   0.000   0.000    0.00
   6.800   10.07    5.32   -0.68   0.000   0.000   0.000    0.00
   6.900   10.44    6.40   -0.57   0.000   0.000   0.000    0.00
   7.000   10.51    4.26   -0.42   0.000   0.000   0.000    0.00
   7.100   10.31    4.71   -0.50   0.000   0.000   0.000    0.00
   7.200   10.36    6.20   -0.26   0.000   0.000   0.000    0.00
   7.300   10.30    5.50   -0.12   0.000   0.000   0.000    0.00
   7.400    9.58    2.56   -0.33   0.000   0.000   0.000    0.00
   7.500    9.95    0.60   -0.59   0.000   0.000   0.000    0.00
   7.600   10.29    2.72   -0.28   0.000   0.000   0.000    0.00
   7.700   10.14    4.85   -0.23   0.000   0.000   0.000    0.00
   7.800    9.90    7.33    0.60   0.000   0.000   0.000    0.00
   7.900   10.25    5.17    1.03   0.000   0.000   0.000    0.00
   8.000    9.93    3.39    1.09   0.000   0.000   0.000    0.00
   8.100    9.58    6.03    1.17   0.000   0.000   0.000    0.00
   8.200    9.61    2.55    0.80   0.000   0.000   0.000    0.00
   8.300    9.92   -0.47    0.37   0.000   0.000   0.000    0.00
   8.400   10.29    3.84    0.46   0.000   0.000   0.000    0.00
   8.500   10.08    1.78    0.80   0.000   0.000   0.000    0.00
   8.600   10.10   -1.31    0.91   0.000   0.000   0.000    0.00
   8.700    9.87   -0.47    0.70   0.000   0.000   0.000    0.00
   8.800    9.70    2.37    0.83   0.000   0.000   0.000    0.00
   8.900    9.90    1.69    0.93   0.000   0.000   0.000    0.00
   9.000    9.31   -0.01    0.57   0.000   0.000   0.000    0.00
   9.100    9.11    1.51    0.74   0.000   0.000   0.000    0.00
   9.200    9.11    3.04    0.47   0.000   0.000   0.000    0.00
   9.300    9.11    1.59    0.90   0.000   0.000   0.000    0.00
   9.400    9.24    2.09    1.35   0.000   0.000   0.000    0.00
   9.500    8.87   -1.74    1.06   0.000   0.000   0.000    0.00
   9.600    9.27    0.91    0.78   0.000   0.000   0.000    0.00
   9.700    9.38    2.44    0.57   0.000   0.000   0.000    0.00
   9.800    9.62   -0.20    0.47   0.000   0.000   0.000    0.00
   9.900   10.36    1.79    0.39   0.000   0.000   0.000    0.00
  10.000   10.61    1.33    0.23   0.000   0.000   0.000    0.00
  10.100    9.74    0.25   -0.18   0.000   0.000   0.000    0.00
  10.200    9.51   -0.17   -0.16   0.000   0.000   0.000    0.00
  10.300    9.61   -0.99    0.04   0.000   0.000   0.000    0.00
  10.400    9.27    0.61    0.74   0.000   0.000   0.000    0.00
  10.500    9.12   -1.07    0.63   0.000   0.000   0.000    0.00
  10.600    9.25   -0.27    0.60   0.000   0.000   0.000    0.00
  10.700    9.40   -1.05   -0.02   0.000   0.000   0.000    0.00
  10.800    9.72   -3.46    0.41   0.000   0.000   0.000    0.00
  10.900   10.08   -1.61    0.74   0.000   0.000   0.000    0.00
  11.000    9.85   -3.93    0.44   0.000   0.000   0.000    0.00
  11.100    9.38   -4.74    0.17   0.000   0.000   0.000    0.00
  11.200    9.35   -7.51    0.15   0.000   0.000   0.000    0.00
  11.300    9.14   -8.47    0.34   0.000   0.000   0.000    0.00
  11.400    9.16   -5.81    0.28   0.000   0.000   0.000    0.00
  11.500    9.13   -5.97    0.15   0.000   0.000   0.000    0.00
  11.600    9.05   -3.63   -0.18   0.000   0.000   0.000    0.00
  11.700    9.45   -4.74    0.47   0.000   0.000   0.000    0.00
  11.800    9.51   -3.79    0.41   0.000   0.000   0.000    0.00
  11.900    9.16   -3.81    0.60   0.000   0.000   0.000    0.00
  12.000    9.38   -2.78    0.69   0.000   0.000   0.000    0.00
  12.100    9.04   -2.09    0.43   0.000   0.000   0.000    0.00
  12.200    8.53    2.82    0.22   0.000   0.000   0.000    0.00
  12.300    8.84    1.39    0.55   0.000   0.000   0.000    0.00
  12.400    9.17   -2.34   -0.11   0.000   0.000   0.000    0.00
  12.500    9.24   -4.24    0.05   0.000   0.000   0.000    0.00
  12.600    8.68   -6.22    0.17   0.000   0.000   0.000    0.00
  12.700    8.72   -8.42   -0.36   0.000   0.000   0.000    0.00
  12.800    8.51   -6.79    0.03   0.000   0.000   0.000    0.00
  12.900    8.12   -6.98    0.45   0.000   0.000   0.000    0.00
  13.000    7.86   -6.76    0.21   0.000   0.000   0.000    0.00
  13.100    7.75   -6.68   -0.42   0.000   0.000   0.000    0.00
  13.200    7.48   -8.96    0.24   0.000   0.000   0.000    0.00
  13.300    7.61   -7.17   -0.04   0.000   0.000   0.000    0.00
  13.400    8.43   -1.74   -0.03   0.000   0.000   0.000    0.00
  13.500    9.22   -4.25    0.86   0.000   0.000   0.000    0.00
  13.600    8.79   -6.94    0.76   0.000   0.000   0.000    0.00
  13.700    8.61    0.54    0.93   0.000   0.000   0.000    0.00
  13.800    8.90    1.34    0.42   0.000   0.000   0.000    0.00
  13.900    8.57    0.68    0.28   0.000   0.000   0.000    0.00
  14.000    8.48   -0.23    0.26   0.000   0.000   0.000    0.00
  14.100    8.49   -0.62   -0.02   0.000   0.000   0.000    0.00
  14.200    8.32   -1.31   -0.27   0.000   0.000   0.000    0.00
  14.300    8.96   -6.66   -0.10   0.000   0.000   0.000    0.00
  14.400    9.44   -5.40    0.01   0.000   0.000   0.000    0.00
  14.500    9.41   -2.56   -0.11   0.000   0.000   0.000    0.00
  14.600    9.83   -2.06   -0.56   0.000   0.000   0.000    0.00
  14.700    9.81   -5.40   -0.73   0.000   0.000   0.000    0.00
  14.800    9.25   -2.82   -0.52   0.000   0.000   0.000    0.00
  14.900    8.85   -1.63   -0.12   0.000   0.000   0.000    0.00
  15.000    9.12   -0.91    0.20   0.000   0.000   0.000    0.00
  15.100    9.19    1.07    0.28   0.000   0.000   0.000    0.00
  15.200    9.14   -0.30   -0.02   0.000   0.000   0.000    0.00
  15.300    9.06    2.52    0.33   0.000   0.000   0.000    0.00
  15.400    8.24    4.29    0.02   0.000   0.000   0.000    0.00
  15.500    8.24    5.42   -0.16   0.000   0.000   0.000    0.00
  15.600    8.54    3.47   -0.32   0.000   0.000   0.000    0.00
  15.700    8.63    2.27   -0.57   0.000   0.000   0.000    0.00
  15.800    8.64    1.72   -0.60   0.000   0.000   0.000    0.00
  15.900    9.04    3.73   -0.31   0.000   0.000   0.000    0.00
  16.000    9.22    1.58   -0.26   0.000   0.000   0.000    0.00
  16.100    9.09   -0.05   -0.62   0.000   0.000   0.000    0.00
  16.200    9.65   -1.93   -0.87   0.000   0.000   0.000    0.00
  16.300    9.50   -1.44   -0.94   0.000   0.000   0.000    0.00
  16.400    9.53   -0.30   -1.27   0.000   0.000   0.000    0.00
  16.500    9.91   -1.86   -0.90   0.000   0.000   0.000    0.00
  16.600   10.07   -3.27   -1.10   0.000   0.000   0.000    0.00
  16.700    9.43   -4.18   -0.78   0.000   0.000   0.000    0.00
  16.800    9.14   -6.10   -0.63   0.000   0.000   0.000    0.00
  16.900    8.31   -1.41   -0.19   0.000   0.000   0.000    0.00
  17.000    8.21   -0.09   -0.58   0.000   0.000   0.000    0.00
  17.100    7.86    0.80   -0.51   0.000   0.000   0.000    0.00
  17.200    7.65    3.39   -0.20   0.000   0.000   0.000    0.00
  17.300    8.10    0.72   -0.15   0.000   0.000   0.000    0.00
  17.400    7.98   -6.77    0.02   0.000   0.000   0.000    0.00
  17.500    7.76   -7.57    0.14   0.000   0.000   0.000    0.00
  17.600    7.52   -5.83   -0.31   0.000   0.000   0.000    0.00
  17.700    7.33   -0.48   -0.13   0.000   0.000   0.000    0.00
  17.800    7.30   -2.22   -0.17   0.000   0.000   0.000    0.00
  17.900    7.33   -5.18   -0.55   0.000   0.000   0.000    0.00
  18.000    7.42   -1.35   -0.29   0.000   0.000   0.000    0.00
  18.100    7.42   -5.38    0.19   0.000   0.000   0.000    0.00
  18.200    7.72   -5.21    0.05   0.000   0.000   0.000    0.00
  18.300    7.39   -1.63    0.18   0.000   0.000   0.000    0.00
  18.400    7.65   -6.13    0.16   0.000   0.000   0.000    0.00
  18.500    7.76  -10.28    0.07   0.000   0.000   0.000    0.00
  18.600    7.65   -6.34    0.43   0.000   0.000   0.000    0.00
  18.700    8.07   -7.31    0.32   0.000   0.000   0.000    0.00
  18.800    8.13   -4.18    0.82   0.000   0.000   0.000    0.00
  18.900    8.38   -1.02    0.50   0.000   0.000   0.000    0.00
  19.000    8.71   -2.85    0.31   0.000   0.000   0.000    0.00
  19.100    8.22    0.16   -0.14   0.000   0.000   0.000    0.00
  19.200    8.17   -1.08   -0.29   0.000   0.000   0.000    0.00
  19.300    8.75   -3.48   -0.28   0.000   0.000   0.000    0.00
  19.400    8.61   -1.28   -0.11   0.000   0.000   0.000    0.00
  19.500    8.89   -2.55   -0.32   0.000   0.000   0.000    0.00
  19.600    8.77   -1.30   -0.34   0.000   0.000   0.000    0.00
  19.700    8.89   -1.50   -0.47   0.000   0.000   0.000    0.00
  19.800    8.35    1.20   -0.67   0.000   0.000   0.000    0.00
  19.900    8.40    2.00   -0.76   0.000   0.000   0.000    0.00
  20.000    8.62   -1.09   -0.50   0.000   0.000   0.000    0.00
  20.100    8.55   -2.01   -0.70   0.000   0.000   0.000    0.00
  20.200    8.74   -1.92   -0.33   0.000   0.000   0.000    0.00
  20.300    8.56   -6.81   -0.13   0.000   0.000   0.000    0.00
  20.400    8.31   -7.91   -0.19   0.000   0.000   0.000    0.00
  20.500    8.34   -7.83    0.08   0.000   0.000   0.000    0.00
  20.600    8.61   -5.45    0.06   0.000   0.000   0.000    0.00
  20.700    8.73   -4.61   -1.02   0.000   0.000   0.000    0.00
  20.800    8.79   -2.91   -1.38   0.000   0.000   0.000    0.00
  20.900    9.25   -1.88   -1.02   0.000   0.000   0.000    0.00
  21.000    9.61   -1.40   -0.68   0.000   0.000   0.000    0.00
  21.100    9.43   -5.47   -0.50   0.000   0.000   0.000    0.00
  21.200    9.13   -5.05   -0.52   0.000   0.000   0.000    0.00
  21.300    8.97   -3.68   -0.77   0.000   0.000   0.000    0.00
  21.400    9.58   -4.16   -1.32   0.000   0.000   0.000    0.00
  21.500    9.79   -5.73   -0.76   0.000   0.000   0.000    0.00
  21.600    9.72   -5.28   -1.10   0.000   0.000   0.000    0.00
  21.700    9.72   -9.75   -0.89   0.000   0.000   0.000    0.00
  21.800    9.70  -10.91   -0.91   0.000   0.000   0.000    0.00
  21.900   10.18   -9.23   -0.27   0.000   0.000   0.000    0.00
  22.000   10.25  -11.23   -0.15   0.000   0.000   0.000    0.00
  22.100    9.90  -14.38   -0.10   0.000   0.000   0.000    0.00
  22.200   10.13  -15.37   -0.13   0.000   0.000   0.000    0.00
  22.300    9.74  -10.46   -0.16   0.000   0.000   0.000    0.00
  22.400    9.55  -11.38    0.74   0.000   0.000   0.000    0.00
  22.500    9.51  -13.01    0.68   0.000   0.000   0.000    0.00
  22.600   10.01  -11.68    0.58   0.000   0.000   0.000    0.00
  22.700    9.90  -10.48    0.80   0.000   0.000   0.000    0.00
  22.800   10.03  -10.73    0.87   0.000   0.000   0.000    0.00
  22.900   10.07  -10.09    0.80   0.000   0.000   0.000    0.00
  23.000    9.76  -10.19    0.70   0.000   0.000   0.000    0.00
  23.100    9.21   -5.21    1.25   0.000   0.000   0.000    0.00
  23.200    8.93   -8.31    0.60   0.000   0.000   0.000    0.00
  23.300    9.06  -12.00    0.22   0.000   0.000   0.000    0.00
  23.400    9.12  -15.29    0.36   0.000   0.000   0.000    0.00
  23.500    8.74  -12.76    0.25   0.000   0.000   0.000    0.00
  23.600    8.69  -10.73    0.32   0.000   0.000   0.000    0.00
  23.700    8.57  -11.53    0.18   0.000   0.000   0.000    0.00
  23.800    8.79   -9.77    0.55   0.000   0.000   0.000    0.00
  23.900    8.98   -9.67    0.07   0.000   0.000   0.000    0.00
  24.000    8.72   -8.84   -0.04   0.000   0.000   0.000    0.00
  24.100    9.17   -9.60   -0.07   0.000   0.000   0.000    0.00
  24.200    8.81   -8.37   -0.32   0.000   0.000   0.000    0.00
  24.300    8.89  -12.09   -0.35   0.000   0.000   0.000    0.00
  24.400    9.13   -9.27   -0.45   0.000   0.000   0.000    0.00
  24.500    9.14  -10.71   -0.29   0.000   0.000   0.000    0.00
  24.600    8.94  -12.90   -0.41   0.000   0.000   0.000    0.00
  24.700    8.97  -12.47   -0.70   0.000   0.000   0.000    0.00
  24.800    8.71  -11.33   -0.71   0.000   0.000   0.000    0.00
  24.900    8.13  -11.36   -0.96   0.000   0.000   0.000    0.00
  25.000    7.98  -16.18   -0.84   0.000   0.000   0.000    0.00
  25.100    8.16  -17.43   -1.02   0.000   0.000   0.000    0.00
  25.200    8.33  -18.66   -1.15   0.000   0.000   0.000    0.00
  25.300    8.03  -19.87   -1.29   0.000   0.000   0.000    0.00
  25.400    8.09  -18.31   -0.86   0.000   0.000   0.000    0.00
  25.500    8.08  -18.39   -0.81   0.000   0.000   0.000    0.00
  25.600    8.49  -12.12   -1.58   0.000   0.000   0.000    0.00
  25.700    8.57   -7.42   -1.32   0.000   0.000   0.000    0.00
  25.800    9.06   -8.70   -1.17   0.000   0.000   0.000    0.00
  25.900    8.84   -6.84   -0.89   0.000   0.000   0.000    0.00
  26.000    8.65   -6.30   -1.09   0.000   0.000   0.000    0.00
  26.100    9.01   -8.23   -1.02   0.000   0.000   0.000    0.00
  26.200    9.24   -7.73   -0.88   0.000   0.000   0.000    0.00
  26.300    9.30   -4.77   -0.69   0.000   0.000   0.000    0.00
  26.400    8.98   -1.57   -0.76   0.000   0.000   0.000    0.00
  26.500    8.78   -2.06   -0.77   0.000   0.000   0.000    0.00
  26.600    8.95   -0.73   -1.01   0.000   0.000   0.000    0.00
  26.700    8.95   -1.67   -1.12   0.000   0.000   0.000    0.00
  26.800    8.84   -1.78   -0.96   0.000   0.000   0.000    0.00
  26.900    8.71    1.04   -0.79   0.000   0.000   0.000    0.00
  27.000    8.53    1.27   -0.52   0.000   0.000   0.000    0.00
  27.100    8.83   -0.24   -1.16   0.000   0.000   0.000    0.00
  27.200    8.74   -0.55   -1.03   0.000   0.000   0.000    0.00
  27.300    8.98    0.19   -0.60   0.000   0.000   0.000    0.00
  27.400    9.24    1.49   -0.48   0.000   0.000   0.000    0.00
  27.500    9.32    3.11   -0.74   0.000   0.000   0.000    0.00
  27.600    9.20    0.36   -1.15   0.000   0.000   0.000    0.00
  27.700    9.10    0.93   -1.14   0.000   0.000   0.000    0.00
  27.800    9.05    1.54   -0.92   0.000   0.000   0.000    0.00
  27.900    9.02    5.08   -0.53   0.000   0.000   0.000    0.00
  28.000    9.01    2.14   -0.53   0.000   0.000   0.000    0.00
  28.100    9.00    3.10   -0.11   0.000   0.000   0.000    0.00
  28.200    9.49    0.40   -0.05   0.000   0.000   0.000    0.00
  28.300    9.50   -0.36    0.06   0.000   0.000   0.000    0.00
  28.400    9.48   -1.47    0.14   0.000   0.000   0.000    0.00
  28.500    9.35   -0.92    0.46   0.000   0.000   0.000    0.00
  28.600    9.52   -0.99    0.34   0.000   0.000   0.000    0.00
  28.700    9.40   -0.68    0.71   0.000   0.000   0.000    0.00
  28.800    9.22   -3.61    0.79   0.000   0.000   0.000    0.00
  28.900    8.75   -5.04    0.74   0.000   0.000   0.000    0.00
  29.000    8.82   -2.18    0.79   0.000   0.000   0.000    0.00
  29.100    8.46    0.58    0.78   0.000   0.000   0.000    0.00
  29.200    8.13    1.73    0.91   0.000   0.000   0.000    0.00
  29.300    8.18    1.89    1.05   0.000   0.000   0.000    0.00
  29.400    8.27    5.61    0.61   0.000   0.000   0.000    0.00
  29.500    8.19    5.51    0.57   0.000   0.000   0.000    0.00
  29.600    8.16    7.94    0.64   0.000   0.000   0.000    0.00
  29.700    8.29    9.13    1.27   0.000   0.000   0.000    0.00
  29.800    8.30    8.94    0.65   0.000   0.000   0.000    0.00
  29.900    8.27    8.66    0.40   0.000   0.000   0.000    0.00
  30.000    8.67    6.28    0.95   0.000   0.000   0.000    0.00
  30.100    8.38    3.28    0.52   0.000   0.000   0.000    0.00
  30.200    8.66   -0.70    0.49   0.000   0.000   0.000    0.00
  30.300    8.73   -3.14    0.74   0.000   0.000   0.000    0.00
  30.400    8.02   -3.93    0.89   0.000   0.000   0.000    0.00
  30.500    8.17    0.83    1.05   0.000   0.000   0.000    0.00
  30.600    8.33   -1.21    0.73   0.000   0.000   0.000    0.00
  30.700    8.91   -0.70    0.95   0.000   0.000   0.000    0.00
  30.800    9.30   -0.90    1.16   0.000   0.000   0.000    0.00
  30.900    9.20   -0.43    1.05   0.000   0.000   0.000    0.00
  31.000    9.15    0.64    0.94   0.000   0.000   0.000    0.00
  31.100    9.20    1.76    1.31   0.000   0.000   0.000    0.00
  31.200    9.45    3.34    1.14   0.000   0.000   0.000    0.00
  31.300    9.21    6.63    1.08   0.000   0.000   0.000    0.00
  31.400    9.11    3.58    0.85   0.000   0.000   0.000    0.00
  31.500    9.38    4.12    1.46   0.000   0.000   0.000    0.00
  31.600    9.47    8.95    1.09   0.000   0.000   0.000    0.00
  31.700    9.82    8.92    1.28   0.000   0.000   0.000    0.00
  31.800    9.85    2.68    0.86   0.000   0.000   0.000    0.00
  31.900    9.21    2.39    0.58   0.000   0.000   0.000    0.00
  32.000    9.15    4.77    0.58   0.000   0.000   0.000    0.00
  32.100    8.72    3.42    1.56   0.000   0.000   0.000    0.00
  32.200    8.65    2.80    0.93   0.000   0.000   0.000    0.00
  32.300    9.08    1.30    1.03   0.000   0.000   0.000    0.00
  32.400    8.88    1.45    1.45   0.000   0.000   0.000    0.00
  32.500    9.13    6.02    1.04   0.000   0.000   0.000    0.00
  32.600    9.31    8.41    1.07   0.000   0.000   0.000    0.00
  32.700    9.40    9.47    1.14   0.000   0.000   0.000    0.00
  32.800    9.70    8.14    0.64   0.000   0.000   0.000    0.00
  32.900   10.29    7.27    0.49   0.000   0.000   0.000    0.00
  33.000   10.72   11.45    0.96   0.000   0.000   0.000    0.00
  33.100   10.29   11.19    0.94   0.000   0.000   0.000    0.00
  33.200    9.68   10.69    0.18   0.000   0.000   0.000    0.00
  33.300    9.40    7.79    0.07   0.000   0.000   0.000    0.00
  33.400    9.47    8.24    0.03   0.000   0.000   0.000    0.00
  33.500    9.42    6.78   -0.32   0.000   0.000   0.000    0.00
  33.600    9.43    5.65   -0.59   0.000   0.000   0.000    0.00
  33.700    9.43    3.01   -0.78   0.000   0.000   0.000    0.00
  33.800    9.18    4.31   -0.93   0.000   0.000   0.000    0.00
  33.900    9.07    2.35   -0.60   0.000   0.000   0.000    0.00
  34.000    8.96    3.03   -0.44   0.000   0.000   0.000    0.00
  34.100    8.86    1.14   -0.67   0.000   0.000   0.000    0.00
  34.200    9.31    0.97   -1.25   0.000   0.000   0.000    0.00
  34.300    9.15    0.35   -0.72   0.000   0.000   0.000    0.00
  34.400    8.91    0.36   -1.08   0.000   0.000   0.000    0.00
  34.500    8.99    0.09   -1.47   0.000   0.000   0.000    0.00
  34.600    8.69    1.83   -0.95   0.000   0.000   0.000    0.00
  34.700    8.83   -0.03   -1.28   0.000   0.000   0.000    0.00
  34.800    8.78    1.58   -1.19   0.000   0.000   0.000    0.00
  34.900    8.32    1.04   -1.06   0.000   0.000   0.000    0.00
  35.000    8.64   -1.35   -1.07   0.000   0.000   0.000    0.00
  35.100    8.40    0.39   -0.65   0.000   0.000   0.000    0.00
  35.200    8.19   -5.30   -0.78   0.000   0.000   0.000    0.00
  35.300    7.97   -0.25   -0.25   0.000   0.000   0.000    0.00
  35.400    7.93   -0.37   -0.57   0.000   0.000   0.000    0.00
  35.500    7.93   -1.22   -0.67   0.000   0.000   0.000    0.00
  35.600    7.80    1.99   -0.89   0.000   0.000   0.000    0.00
  35.700    7.53    0.88   -0.69   0.000   0.000   0.000    0.00
  35.800    7.49   -1.91   -1.18   0.000   0.000   0.000    0.00
  35.900    8.12    1.08   -0.92   0.000   0.000   0.000    0.00
  36.000    8.10   -0.89   -1.20   0.000   0.000   0.000    0.00
  36.100    8.20    0.22   -0.85   0.000   0.000   0.000    0.00
  36.200    7.96    0.38   -0.69   0.000   0.000   0.000    0.00
  36.300    7.77    1.12   -0.51   0.000   0.000   0.000    0.00
  36.400    7.68   -1.01   -0.51   0.000   0.000   0.000    0.00
  36.500    7.38   -4.75   -0.97   0.000   0.000   0.000    0.00
  36.600    7.61   -8.54   -0.30   0.000   0.000   0.000    0.00
  36.700    7.19   -3.00    0.02   0.000   0.000   0.000    0.00
  36.800    6.87   -3.83    0.04   0.000   0.000   0.000    0.00
  36.900    6.82   -4.47    0.18   0.000   0.000   0.000    0.00
  37.000    7.01   -5.25    0.31   0.000   0.000   0.000    0.00
  37.100    7.45   -7.41    0.28   0.000   0.000   0.000    0.00
  37.200    6.89   -6.28    0.13   0.000   0.000   0.000    0.00
  37.300    6.76   -4.52    0.62   0.000   0.000   0.000    0.00
  37.400    6.64   -2.29    0.31   0.000   0.000   0.000    0.00
  37.500    6.88   -4.28    0.54   0.000   0.000   0.000    0.00
  37.600    6.70   -0.99    0.34   0.000   0.000   0.000    0.00
  37.700    6.70    0.30    0.21   0.000   0.000   0.000    0.00
  37.800    7.00    5.85    0.21   0.000   0.000   0.000    0.00
  37.900    6.90    7.94    0.77   0.000   0.000   0.000    0.00
  38.000    6.57    6.58    0.76   0.000   0.000   0.000    0.00
  38.100    6.99    5.03    0.79   0.000   0.000   0.000    0.00
  38.200    7.15    6.98    0.70   0.000   0.000   0.000    0.00
  38.300    7.22    8.33    0.07   0.000   0.000   0.000    0.00
  38.400    6.90    9.17   -0.09   0.000   0.000   0.000    0.00
  38.500    7.27    3.23   -0.32   0.000   0.000   0.000    0.00
  38.600    7.32    4.85    0.03   0.000   0.000   0.000    0.00
  38.700    7.24    6.46   -0.07   0.000   0.000   0.000    0.00
  38.800    7.91    9.18   -0.15   0.000   0.000   0.000    0.00
  38.900    8.32   14.24   -0.13   0.000   0.000   0.000    0.00
  39.000    8.15   14.22    0.16   0.000   0.000   0.000    0.00
  39.100    7.80   11.01    0.50   0.000   0.000   0.000    0.00
  39.200    7.67    8.14    0.49   0.000   0.000   0.000    0.00
  39.300    8.03    4.74    0.78   0.000   0.000   0.000    0.00
  39.400    8.30    1.32    0.55   0.000   0.000   0.000    0.00
  39.500    8.04    5.15    0.20   0.000   0.000   0.000    0.00
  39.600    8.27    3.63    0.21   0.000   0.000   0.000    0.00
  39.700    8.52    1.20   -0.04   0.000   0.000   0.000    0.00
  39.800    8.33    1.01    0.20   0.000   0.000   0.000    0.00
  39.900    8.65    2.80    0.48   0.000   0.000   0.000    0.00
  40.000    9.05   -2.55    0.45   0.000   0.000   0.000    0.00
  40.100    9.40   -5.92    0.57   0.000   0.000   0.000    0.00
  40.200    9.45   -8.10    0.77   0.000   0.000   0.000    0.00
  40.300    9.06   -8.68    0.72   0.000   0.000   0.000    0.00
  40.400    9.33   -3.33    0.91   0.000   0.000   0.000    0.00
  40.500    8.92   -3.19    0.89   0.000   0.000   0.000    0.00
  40.600    8.84   -6.02    0.89   0.000   0.000   0.000    0.00
  40.700    9.01   -3.07    1.70   0.000   0.000   0.000    0.00
  40.800    9.30   -2.14    1.04   0.000   0.000   0.000    0.00
  40.900    9.02   -4.40    0.59   0.000   0.000   0.000    0.00
  41.000    8.70   -3.88    0.37   0.000   0.000   0.000    0.00
  41.100    8.64   -4.57    0.23   0.000   0.000   0.000    0.00
  41.200    9.15   -2.63    0.31   0.000   0.000   0.000    0.00
  41.300    8.81   -1.07   -0.03   0.000   0.000   0.000    0.00
  41.400    8.51   -0.15   -0.28   0.000   0.000   0.000    0.00
  41.500    8.57   -1.60   -0.21   0.000   0.000   0.000    0.00
  41.600    8.91   -0.75   -0.25   0.000   0.000   0.000    0.00
  41.700    9.44   -3.20    0.08   0.000   0.000   0.000    0.00
  41.800    9.57   -5.14   -0.57   0.000   0.000   0.000    0.00
  41.900    9.83   -5.80   -0.33   0.000   0.000   0.000    0.00
  42.000    9.70   -8.66    0.19   0.000   0.000   0.000    0.00
  42.100    9.43   -8.07    0.34   0.000   0.000   0.000    0.00
  42.200    9.46   -4.32    0.06   0.000   0.000   0.000    0.00
  42.300   10.13   -3.47   -0.02   0.000   0.000   0.000    0.00
  42.400   10.27   -0.83    0.24   0.000   0.000   0.000    0.00
  42.500   10.36   -0.60    0.09   0.000   0.000   0.000    0.00
  42.600   10.50   -0.01   -0.17   0.000   0.000   0.000    0.00
  42.700   10.77   -4.09    0.11   0.000   0.000   0.000    0.00
  42.800   10.64   -4.49   -0.47   0.000   0.000   0.000    0.00
  42.900   10.98   -6.96   -0.45   0.000   0.000   0.000    0.00
  43.000   10.64   -4.07   -0.66   0.000   0.000   0.000    0.00
  43.100   10.31   -7.45   -0.43   0.000   0.000   0.000    0.00
  43.200   10.55   -7.65   -0.21   0.000   0.000   0.000    0.00
  43.300   10.67   -6.77   -0.41   0.000   0.000   0.000    0.00
  43.400   10.51   -5.67   -0.79   0.000   0.000   0.000    0.00
  43.500   10.50   -6.10   -0.82   0.000   0.000   0.000    0.00
  43.600    9.87   -6.79   -0.82   0.000   0.000   0.000    0.00
  43.700    9.95   -5.49   -0.53   0.000   0.000   0.000    0.00
  43.800    9.74   -5.06   -0.45   0.000   0.000   0.000    0.00
  43.900    9.70   -7.15   -0.00   0.000   0.000   0.000    0.00
  44.000    9.91   -7.49   -0.10   0.000   0.000   0.000    0.00
  44.100    9.77   -6.71    0.28   0.000   0.000   0.000    0.00
  44.200   10.00   -9.56    0.40   0.000   0.000   0.000    0.00
  44.300   10.43   -7.26    0.21   0.000   0.000   0.000    0.00
  44.400   10.36   -6.45    0.32   0.000   0.000   0.000    0.00
  44.500   10.76   -7.41    0.24   0.000   0.000   0.000    0.00
  44.600   10.74   -7.83    0.24   0.000   0.000   0.000    0.00
  44.700   10.43  -10.81    0.07   0.000   0.000   0.000    0.00