! This hub-height wind-speed file was generated by TurbSim (v2.00.07a-bjj, 14-Jun-2016) on 22-Dec-2020 at 21:03:13.
!
! The requested statistics for this data were:
!    Mean Total Wind Speed =   20.000 m/s
!    Turbulence Intensity  =   12.360%
!
!   Time  HorSpd  WndDir  VerSpd  HorShr  VerShr  LnVShr  GstSpd
!  (sec)   (m/s)   (deg)   (m/s)     (-)     (-)     (-)   (m/s)
   0.000   18.39   -0.70   -0.06   0.000   0.000   0.000    0.00
   0.100   18.77   -1.82   -0.29   0.000   0.000   0.000    0.00
   0.200   18.79   -0.55   -0.77   0.000   0.000   0.000    0.00
   0.300   18.30   -3.47   -0.10   0.000   0.000   0.000    0.00
   0.400   18.54   -4.92    0.10   0.000   0.000   0.000    0.00
   0.500   18.48   -4.47    0.27   0.000   0.000   0.000    0.00
   0.600   19.94   -5.48    1.05   0.000   0.000   0.000    0.00
   0.700   20.78   -2.94    0.49   0.000   0.000   0.000    0.00
   0.800   20.12    0.26   -0.42   0.000   0.000   0.000    0.00
   0.900   19.79    1.81    0.74   0.000   0.000   0.000    0.00
   1.000   20.22    0.47    1.13   0.000   0.000   0.000    0.00
   1.100   20.90    2.56   -0.17   0.000   0.000   0.000    0.00
   1.200   21.56    3.15   -0.65   0.000   0.000   0.000    0.00
   1.300   21.53    2.95   -1.58   0.000   0.000   0.000    0.00
   1.400   21.51    2.83   -1.69   0.000   0.000   0.000    0.00
   1.500   22.01    1.65   -0.90   0.000   0.000   0.000    0.00
   1.600   21.35   -1.69    0.07   0.000   0.000   0.000    0.00
   1.700   20.53   -3.30   -0.85   0.000   0.000   0.000    0.00
   1.800   20.87   -3.65   -0.67   0.000   0.000   0.000    0.00
   1.900   20.77   -2.44   -1.23   0.000   0.000   0.000    0.00
   2.000   21.06   -0.57   -0.84   0.000   0.000   0.000    0.00
   2.100   20.91   -2.91   -1.05   0.000   0.000   0.000    0.00
   2.200   21.11   -0.82   -1.09   0.000   0.000   0.000    0.00
   2.300   22.48    1.54   -1.05   0.000   0.000   0.000    0.00
   2.400   22.14   -0.19   -0.70   0.000   0.000   0.000    0.00
   2.500   21.32    2.04   -0.78   0.000   0.000   0.000    0.00
   2.600   21.34    4.10   -0.40   0.000   0.000   0.000    0.00
   2.700   20.93    1.90    0.54   0.000   0.000   0.000    0.00
   2.800   21.06    1.26    0.13   0.000   0.000   0.000    0.00
   2.900   21.38    1.02   -0.47   0.000   0.000   0.000    0.00
   3.000   21.35    0.83    0.82   0.000   0.000   0.000    0.00
   3.100   22.17   -0.65    0.86   0.000   0.000   0.000    0.00
   3.200   22.01   -3.58    1.15   0.000   0.000   0.000    0.00
   3.300   20.92   -3.74    1.05   0.000   0.000   0.000    0.00
   3.400   21.44    0.61   -0.30   0.000   0.000   0.000    0.00
   3.500   21.54   -0.83    0.33   0.000   0.000   0.000    0.00
   3.600   22.80    0.03   -0.60   0.000   0.000   0.000    0.00
   3.700   22.63    2.77   -0.97   0.000   0.000   0.000    0.00
   3.800   21.87    2.77   -2.31   0.000   0.000   0.000    0.00
   3.900   21.83    4.81   -1.58   0.000   0.000   0.000    0.00
   4.000   22.59    4.06   -0.43   0.000   0.000   0.000    0.00
   4.100   22.55    1.28   -0.62   0.000   0.000   0.000    0.00
   4.200   22.55    2.14    0.18   0.000   0.000   0.000    0.00
   4.300   22.77    2.66    0.56   0.000   0.000   0.000    0.00
   4.400   22.46    3.43    0.67   0.000   0.000   0.000    0.00
   4.500   21.81    4.52   -0.50   0.000   0.000   0.000    0.00
   4.600   21.99    0.60   -1.74   0.000   0.000   0.000    0.00
   4.700   21.30    3.82   -1.63   0.000   0.000   0.000    0.00
   4.800   21.23    2.02   -1.51   0.000   0.000   0.000    0.00
   4.900   21.31   -0.46   -1.62   0.000   0.000   0.000    0.00
   5.000   20.54    0.98   -2.54   0.000   0.000   0.000    0.00
   5.100   21.66    1.32   -2.92   0.000   0.000   0.000    0.00
   5.200   20.72    1.64   -1.74   0.000   0.000   0.000    0.00
   5.300   20.88    2.89   -1.74   0.000   0.000   0.000    0.00
   5.400   19.79    3.43   -1.57   0.000   0.000   0.000    0.00
   5.500   20.04    5.81   -1.68   0.000   0.000   0.000    0.00
   5.600   18.93    4.65   -2.22   0.000   0.000   0.000    0.00
   5.700   19.67    3.72   -2.34   0.000   0.000   0.000    0.00
   5.800   19.28    2.06   -0.63   0.000   0.000   0.000    0.00
   5.900   18.82    0.59   -0.75   0.000   0.000   0.000    0.00
   6.000   19.34    2.93   -1.90   0.000   0.000   0.000    0.00
   6.100   19.40    4.05   -2.34   0.000   0.000   0.000    0.00
   6.200   19.08    4.36   -2.02   0.000   0.000   0.000    0.00
   6.300   19.32    3.17   -1.62   0.000   0.000   0.000    0.00
   6.400   19.52    2.91   -1.44   0.000   0.000   0.000    0.00
   6.500   20.17    3.60   -0.72   0.000   0.000   0.000    0.00
   6.600   20.14    3.98   -1.14   0.000   0.000   0.000    0.00
   6.700   20.63    2.83   -0.94   0.000   0.000   0.000    0.00
   6.800   20.07    5.05   -1.02   0.000   0.000   0.000    0.00
   6.900   20.82    6.12   -0.84   0.000   0.000   0.000    0.00
   7.000   20.98    4.00   -0.56   0.000   0.000   0.000    0.00
   7.100   20.60    4.44   -0.77   0.000   0.000   0.000    0.00
   7.200   20.72    5.92   -0.32   0.000   0.000   0.000    0.00
   7.300   20.64    5.23   -0.09   0.000   0.000   0.000    0.00
   7.400   19.24    2.33   -0.53   0.000   0.000   0.000    0.00
   7.500   20.00    0.43   -1.05   0.000   0.000   0.000    0.00
   7.600   20.69    2.53   -0.50   0.000   0.000   0.000    0.00
   7.700   20.41    4.60   -0.45   0.000   0.000   0.000    0.00
   7.800   19.95    7.03    1.10   0.000   0.000   0.000    0.00
   7.900   20.66    4.93    1.89   0.000   0.000   0.000    0.00
   8.000   20.05    3.20    1.96   0.000   0.000   0.000    0.00
   8.100   19.37    5.80    2.10   0.000   0.000   0.000    0.00
   8.200   19.46    2.43    1.37   0.000   0.000   0.000    0.00
   8.300   20.08   -0.48    0.52   0.000   0.000   0.000    0.00
   8.400   20.82    3.75    0.68   0.000   0.000   0.000    0.00
   8.500   20.42    1.76    1.32   0.000   0.000   0.000    0.00
   8.600   20.47   -1.23    1.53   0.000   0.000   0.000    0.00
   8.700   20.03   -0.39    1.11   0.000   0.000   0.000    0.00
   8.800   19.70    2.40    1.35   0.000   0.000   0.000    0.00
   8.900   20.10    1.74    1.53   0.000   0.000   0.000    0.00
   9.000   18.93    0.12    0.83   0.000   0.000   0.000    0.00
   9.100   18.54    1.61    1.16   0.000   0.000   0.000    0.00
   9.200   18.54    3.11    0.62   0.000   0.000   0.000    0.00
   9.300   18.52    1.72    1.46   0.000   0.000   0.000    0.00
   9.400   18.79    2.23    2.33   0.000   0.000   0.000    0.00
   9.500   18.04   -1.45    1.78   0.000   0.000   0.000    0.00
   9.600   18.83    1.13    1.24   0.000   0.000   0.000    0.00
   9.700   19.04    2.64    0.86   0.000   0.000   0.000    0.00
   9.800   19.50    0.08    0.68   0.000   0.000   0.000    0.00
   9.900   20.96    2.02    0.55   0.000   0.000   0.000    0.00
  10.000   21.44    1.59    0.26   0.000   0.000   0.000    0.00
  10.100   19.71    0.59   -0.54   0.000   0.000   0.000    0.00
  10.200   19.25    0.22   -0.48   0.000   0.000   0.000    0.00
  10.300   19.45   -0.55   -0.11   0.000   0.000   0.000    0.00
  10.400   18.79    1.05    1.25   0.000   0.000   0.000    0.00
  10.500   18.48   -0.55    1.04   0.000   0.000   0.000    0.00
  10.600   18.74    0.25    0.97   0.000   0.000   0.000    0.00
  10.700   19.04   -0.47   -0.23   0.000   0.000   0.000    0.00
  10.800   19.67   -2.81    0.60   0.000   0.000   0.000    0.00
  10.900   20.38   -0.99    1.26   0.000   0.000   0.000    0.00
  11.000   19.92   -3.21    0.68   0.000   0.000   0.000    0.00
  11.100   19.00   -3.92    0.17   0.000   0.000   0.000    0.00
  11.200   18.93   -6.58    0.14   0.000   0.000   0.000    0.00
  11.300   18.52   -7.47    0.52   0.000   0.000   0.000    0.00
  11.400   18.59   -4.86    0.39   0.000   0.000   0.000    0.00
  11.500   18.53   -5.01    0.15   0.000   0.000   0.000    0.00
  11.600   18.41   -2.72   -0.49   0.000   0.000   0.000    0.00
  11.700   19.19   -3.84    0.76   0.000   0.000   0.000    0.00
  11.800   19.34   -2.92    0.65   0.000   0.000   0.000    0.00
  11.900   18.64   -2.91    1.01   0.000   0.000   0.000    0.00
  12.000   19.10   -1.93    1.18   0.000   0.000   0.000    0.00
  12.100   18.44   -1.24    0.70   0.000   0.000   0.000    0.00
  12.200   17.46    3.55    0.29   0.000   0.000   0.000    0.00
  12.300   18.08    2.16    0.96   0.000   0.000   0.000    0.00
  12.400   18.73   -1.45   -0.33   0.000   0.000   0.000    0.00
  12.500   18.85   -3.26    0.00   0.000   0.000   0.000    0.00
  12.600   17.75   -5.08    0.26   0.000   0.000   0.000    0.00
  12.700   17.82   -7.18   -0.78   0.000   0.000   0.000    0.00
  12.800   17.43   -5.56   -0.01   0.000   0.000   0.000    0.00
  12.900   16.65   -5.68    0.80   0.000   0.000   0.000    0.00
  13.000   16.15   -5.43    0.33   0.000   0.000   0.000    0.00
  13.100   15.93   -5.33   -0.89   0.000   0.000   0.000    0.00
  13.200   15.40   -7.48    0.41   0.000   0.000   0.000    0.00
  13.300   15.67   -5.81   -0.16   0.000   0.000   0.000    0.00
  13.400   17.31   -0.73   -0.14   0.000   0.000   0.000    0.00
  13.500   18.87   -3.24    1.58   0.000   0.000   0.000    0.00
  13.600   17.99   -5.81    1.37   0.000   0.000   0.000    0.00
  13.700   17.67    1.39    1.72   0.000   0.000   0.000    0.00
  13.800   18.26    2.11    0.73   0.000   0.000   0.000    0.00
  13.900   17.59    1.49    0.48   0.000   0.000   0.000    0.00
  14.000   17.43    0.63    0.48   0.000   0.000   0.000    0.00
  14.100   17.44    0.26   -0.06   0.000   0.000   0.000    0.00
  14.200   17.10   -0.37   -0.52   0.000   0.000   0.000    0.00
  14.300   18.33   -5.58   -0.16   0.000   0.000   0.000    0.00
  14.400   19.29   -4.42    0.06   0.000   0.000   0.000    0.00
  14.500   19.23   -1.68   -0.14   0.000   0.000   0.000    0.00
  14.600   20.06   -1.24   -1.00   0.000   0.000   0.000    0.00
  14.700   20.00   -4.48   -1.32   0.000   0.000   0.000    0.00
  14.800   18.90   -1.95   -0.92   0.000   0.000   0.000    0.00
  14.900   18.11   -0.78   -0.15   0.000   0.000   0.000    0.00
  15.000   18.65   -0.14    0.48   0.000   0.000   0.000    0.00
  15.100   18.80    1.75    0.64   0.000   0.000   0.000    0.00
  15.200   18.68    0.40    0.05   0.000   0.000   0.000    0.00
  15.300   18.52    3.11    0.74   0.000   0.000   0.000    0.00
  15.400   16.90    4.85    0.15   0.000   0.000   0.000    0.00
  15.500   16.89    5.94   -0.17   0.000   0.000   0.000    0.00
  15.600   17.47    4.05   -0.46   0.000   0.000   0.000    0.00
  15.700   17.64    2.89   -0.91   0.000   0.000   0.000    0.00
  15.800   17.64    2.38   -0.96   0.000   0.000   0.000    0.00
  15.900   18.42    4.31   -0.38   0.000   0.000   0.000    0.00
  16.000   18.77    2.24   -0.27   0.000   0.000   0.000    0.00
  16.100   18.49    0.70   -0.95   0.000   0.000   0.000    0.00
  16.200   19.57   -1.14   -1.41   0.000   0.000   0.000    0.00
  16.300   19.27   -0.62   -1.53   0.000   0.000   0.000    0.00
  16.400   19.31    0.51   -2.16   0.000   0.000   0.000    0.00
  16.500   20.06   -1.03   -1.44   0.000   0.000   0.000    0.00
  16.600   20.37   -2.39   -1.84   0.000   0.000   0.000    0.00
  16.700   19.09   -3.20   -1.24   0.000   0.000   0.000    0.00
  16.800   18.50   -5.03   -0.97   0.000   0.000   0.000    0.00
  16.900   16.91   -0.37   -0.13   0.000   0.000   0.000    0.00
  17.000   16.71    0.92   -0.90   0.000   0.000   0.000    0.00
  17.100   16.04    1.83   -0.78   0.000   0.000   0.000    0.00
  17.200   15.64    4.37   -0.20   0.000   0.000   0.000    0.00
  17.300   16.54    1.77   -0.12   0.000   0.000   0.000    0.00
  17.400   16.28   -5.41    0.19   0.000   0.000   0.000    0.00
  17.500   15.85   -6.10    0.43   0.000   0.000   0.000    0.00
  17.600   15.42   -4.36   -0.46   0.000   0.000   0.000    0.00
  17.700   15.10    0.83   -0.10   0.000   0.000   0.000    0.00
  17.800   15.06   -0.82   -0.19   0.000   0.000   0.000    0.00
  17.900   15.13   -3.63   -0.95   0.000   0.000   0.000    0.00
  18.000   15.37    0.03   -0.45   0.000   0.000   0.000    0.00
  18.100   15.37   -3.78    0.47   0.000   0.000   0.000    0.00
  18.200   16.01   -3.65    0.17   0.000   0.000   0.000    0.00
  18.300   15.39   -0.16    0.43   0.000   0.000   0.000    0.00
  18.400   15.91   -4.44    0.38   0.000   0.000   0.000    0.00
  18.500   16.13   -8.37    0.18   0.000   0.000   0.000    0.00
  18.600   15.98   -4.59    0.88   0.000   0.000   0.000    0.00
  18.700   16.82   -5.59    0.66   0.000   0.000   0.000    0.00
  18.800   16.99   -2.65    1.63   0.000   0.000   0.000    0.00
  18.900   17.54    0.29    1.02   0.000   0.000   0.000    0.00
  19.000   18.21   -1.50    0.67   0.000   0.000   0.000    0.00
  19.100   17.27    1.41   -0.17   0.000   0.000   0.000    0.00
  19.200   17.19    0.26   -0.44   0.000   0.000   0.000    0.00
  19.300   18.34   -2.07   -0.39   0.000   0.000   0.000    0.00
  19.400   18.08    0.03   -0.04   0.000   0.000   0.000    0.00
  19.500   18.65   -1.20   -0.45   0.000   0.000   0.000    0.00
  19.600   18.43    0.01   -0.47   0.000   0.000   0.000    0.00
  19.700   18.68   -0.19   -0.70   0.000   0.000   0.000    0.00
  19.800   17.64    2.42   -1.07   0.000   0.000   0.000    0.00
  19.900   17.73    3.19   -1.24   0.000   0.000   0.000    0.00
  20.000   18.16    0.30   -0.74   0.000   0.000   0.000    0.00
  20.100   18.01   -0.51   -1.12   0.000   0.000   0.000    0.00
  20.200   18.39   -0.42   -0.40   0.000   0.000   0.000    0.00
  20.300   17.99   -4.92   -0.01   0.000   0.000   0.000    0.00
  20.400   17.48   -5.86   -0.13   0.000   0.000   0.000    0.00
  20.500   17.56   -5.76    0.39   0.000   0.000   0.000    0.00
  20.600   18.10   -3.57    0.38   0.000   0.000   0.000    0.00
  20.700   18.35   -2.80   -1.69   0.000   0.000   0.000    0.00
  20.800   18.48   -1.20   -2.38   0.000   0.000   0.000    0.00
  20.900   19.40   -0.28   -1.67   0.000   0.000   0.000    0.00
  21.000   20.11    0.14   -1.00   0.000   0.000   0.000    0.00
  21.100   19.71   -3.64   -0.66   0.000   0.000   0.000    0.00
  21.200   19.14   -3.14   -0.71   0.000   0.000   0.000    0.00
  21.300   18.83   -1.79   -1.19   0.000   0.000   0.000    0.00
  21.400   20.03   -2.31   -2.26   0.000   0.000   0.000    0.00
  21.500   20.42   -3.79   -1.16   0.000   0.000   0.000    0.00
  21.600   20.28   -3.30   -1.85   0.000   0.000   0.000    0.00
  21.700   20.24   -7.48   -1.46   0.000   0.000   0.000    0.00
  21.800   20.18   -8.52   -1.54   0.000   0.000   0.000    0.00
  21.900   21.15   -6.99   -0.33   0.000   0.000   0.000    0.00
  22.000   21.25   -8.87   -0.13   0.000   0.000   0.000    0.00
  22.100   20.52  -11.75   -0.07   0.000   0.000   0.000    0.00
  22.200   20.95  -12.72   -0.17   0.000   0.000   0.000    0.00
  22.300   20.26   -7.95   -0.27   0.000   0.000   0.000    0.00
  22.400   19.87   -8.76    1.45   0.000   0.000   0.000    0.00
  22.500   19.78  -10.29    1.30   0.000   0.000   0.000    0.00
  22.600   20.78   -9.14    1.09   0.000   0.000   0.000    0.00
  22.700   20.58   -7.98    1.50   0.000   0.000   0.000    0.00
  22.800   20.84   -8.25    1.61   0.000   0.000   0.000    0.00
  22.900   20.93   -7.66    1.46   0.000   0.000   0.000    0.00
  23.000   20.32   -7.69    1.27   0.000   0.000   0.000    0.00
  23.100   19.30   -2.86    2.35   0.000   0.000   0.000    0.00
  23.200   18.71   -5.69    1.10   0.000   0.000   0.000    0.00
  23.300   18.91   -9.20    0.38   0.000   0.000   0.000    0.00
  23.400   18.97  -12.32    0.69   0.000   0.000   0.000    0.00
  23.500   18.26   -9.82    0.48   0.000   0.000   0.000    0.00
  23.600   18.17   -7.90    0.64   0.000   0.000   0.000    0.00
  23.700   17.93   -8.64    0.38   0.000   0.000   0.000    0.00
  23.800   18.38   -7.06    1.12   0.000   0.000   0.000    0.00
  23.900   18.74   -7.03    0.21   0.000   0.000   0.000    0.00
  24.000   18.22   -6.18    0.02   0.000   0.000   0.000    0.00
  24.100   19.11   -7.03    0.00   0.000   0.000   0.000    0.00
  24.200   18.41   -5.77   -0.46   0.000   0.000   0.000    0.00
  24.300   18.50   -9.32   -0.47   0.000   0.000   0.000    0.00
  24.400   19.02   -6.72   -0.65   0.000   0.000   0.000    0.00
  24.500   19.01   -8.08   -0.30   0.000   0.000   0.000    0.00
  24.600   18.59  -10.10   -0.50   0.000   0.000   0.000    0.00
  24.700   18.65   -9.71   -1.06   0.000   0.000   0.000    0.00
  24.800   18.15   -8.55   -1.04   0.000   0.000   0.000    0.00
  24.900   17.03   -8.40   -1.50   0.000   0.000   0.000    0.00
  25.000   16.66  -12.89   -1.23   0.000   0.000   0.000    0.00
  25.100   17.01  -14.13   -1.57   0.000   0.000   0.000    0.00
  25.200   17.33  -15.36   -1.81   0.000   0.000   0.000    0.00
  25.300   16.74  -16.41   -2.07   0.000   0.000   0.000    0.00
  25.400   16.89  -15.00   -1.21   0.000   0.000   0.000    0.00
  25.500   16.89  -15.13   -1.10   0.000   0.000   0.000    0.00
  25.600   17.81   -9.42   -2.61   0.000   0.000   0.000    0.00
  25.700   18.04   -5.11   -2.09   0.000   0.000   0.000    0.00
  25.800   19.02   -6.50   -1.81   0.000   0.000   0.000    0.00
  25.900   18.63   -4.75   -1.27   0.000   0.000   0.000    0.00
  26.000   18.27   -4.27   -1.66   0.000   0.000   0.000    0.00
  26.100   18.99   -6.20   -1.53   0.000   0.000   0.000    0.00
  26.200   19.47   -5.84   -1.28   0.000   0.000   0.000    0.00
  26.300   19.65   -3.15   -0.91   0.000   0.000   0.000    0.00
  26.400   19.06   -0.18   -1.06   0.000   0.000   0.000    0.00
  26.500   18.68   -0.67   -1.08   0.000   0.000   0.000    0.00
  26.600   19.06    0.47   -1.54   0.000   0.000   0.000    0.00
  26.700   19.07   -0.45   -1.76   0.000   0.000   0.000    0.00
  26.800   18.87   -0.59   -1.48   0.000   0.000   0.000    0.00
  26.900   18.65    1.97   -1.16   0.000   0.000   0.000    0.00
  27.000   18.32    2.15   -0.64   0.000   0.000   0.000    0.00
  27.100   18.92    0.68   -1.89   0.000   0.000   0.000    0.00
  27.200   18.77    0.37   -1.65   0.000   0.000   0.000    0.00
  27.300   19.24    0.98   -0.84   0.000   0.000   0.000    0.00
  27.400   19.78    2.12   -0.62   0.000   0.000   0.000    0.00
  27.500   19.95    3.57   -1.14   0.000   0.000   0.000    0.00
  27.600   19.72    1.01   -1.96   0.000   0.000   0.000    0.00
  27.700   19.53    1.52   -1.96   0.000   0.000   0.000    0.00
  27.800   19.42    2.05   -1.56   0.000   0.000   0.000    0.00
  27.900   19.37    5.27   -0.84   0.000   0.000   0.000    0.00
  28.000   19.36    2.55   -0.90   0.000   0.000   0.000    0.00
  28.100   19.32    3.43   -0.12   0.000   0.000   0.000    0.00
  28.200   20.29    0.90   -0.06   0.000   0.000   0.000    0.00
  28.300   20.29    0.20    0.12   0.000   0.000   0.000    0.00
  28.400   20.23   -0.84    0.23   0.000   0.000   0.000    0.00
  28.500   19.97   -0.33    0.80   0.000   0.000   0.000    0.00
  28.600   20.28   -0.42    0.52   0.000   0.000   0.000    0.00
  28.700   20.03   -0.14    1.21   0.000   0.000   0.000    0.00
  28.800   19.64   -2.86    1.34   0.000   0.000   0.000    0.00
  28.900   18.69   -4.17    1.21   0.000   0.000   0.000    0.00
  29.000   18.83   -1.58    1.28   0.000   0.000   0.000    0.00
  29.100   18.09    0.93    1.23   0.000   0.000   0.000    0.00
  29.200   17.42    1.96    1.47   0.000   0.000   0.000    0.00
  29.300   17.49    2.06    1.74   0.000   0.000   0.000    0.00
  29.400   17.63    5.45    0.86   0.000   0.000   0.000    0.00
  29.500   17.45    5.32    0.79   0.000   0.000   0.000    0.00
  29.600   17.35    7.54    0.91   0.000   0.000   0.000    0.00
  29.700   17.56    8.64    2.12   0.000   0.000   0.000    0.00
  29.800   17.55    8.47    0.91   0.000   0.000   0.000    0.00
  29.900   17.46    8.22    0.41   0.000   0.000   0.000    0.00
  30.000   18.22    6.03    1.49   0.000   0.000   0.000    0.00
  30.100   17.60    3.24    0.63   0.000   0.000   0.000    0.00
  30.200   18.13   -0.48    0.56   0.000   0.000   0.000    0.00
  30.300   18.21   -2.77    1.04   0.000   0.000   0.000    0.00
  30.400   16.79   -3.50    1.31   0.000   0.000   0.000    0.00
  30.500   17.05    0.98    1.61   0.000   0.000   0.000    0.00
  30.600   17.31   -0.98    0.97   0.000   0.000   0.000    0.00
  30.700   18.43   -0.52    1.39   0.000   0.000   0.000    0.00
  30.800   19.16   -0.75    1.79   0.000   0.000   0.000    0.00
  30.900   18.91   -0.32    1.56   0.000   0.000   0.000    0.00
  31.000   18.78    0.67    1.34   0.000   0.000   0.000    0.00
  31.100   18.86    1.72    2.05   0.000   0.000   0.000    0.00
  31.200   19.30    3.21    1.73   0.000   0.000   0.000    0.00
  31.300   18.79    6.36    1.62   0.000   0.000   0.000    0.00
  31.400   18.58    3.38    1.15   0.000   0.000   0.000    0.00
  31.500   19.08    3.89    2.35   0.000   0.000   0.000    0.00
  31.600   19.23    8.56    1.64   0.000   0.000   0.000    0.00
  31.700   19.90    8.55    2.02   0.000   0.000   0.000    0.00
  31.800   19.94    2.47    1.21   0.000   0.000   0.000    0.00
  31.900   18.65    2.17    0.67   0.000   0.000   0.000    0.00
  32.000   18.53    4.49    0.69   0.000   0.000   0.000    0.00
  32.100   17.66    3.16    2.60   0.000   0.000   0.000    0.00
  32.200   17.50    2.54    1.37   0.000   0.000   0.000    0.00
  32.300   18.35    1.08    1.58   0.000   0.000   0.000    0.00
  32.400   17.93    1.19    2.41   0.000   0.000   0.000    0.00
  32.500   18.41    5.63    1.62   0.000   0.000   0.000    0.00
  32.600   18.76    7.95    1.72   0.000   0.000   0.000    0.00
  32.700   18.91    8.97    1.88   0.000   0.000   0.000    0.00
  32.800   19.49    7.67    0.95   0.000   0.000   0.000    0.00
  32.900   20.66    6.83    0.68   0.000   0.000   0.000    0.00
  33.000   21.49   10.96    1.63   0.000   0.000   0.000    0.00
  33.100   20.62   10.69    1.64   0.000   0.000   0.000    0.00
  33.200   19.41   10.19    0.22   0.000   0.000   0.000    0.00
  33.300   18.86    7.35    0.06   0.000   0.000   0.000    0.00
  33.400   18.99    7.84    0.04   0.000   0.000   0.000    0.00
  33.500   18.88    6.44   -0.59   0.000   0.000   0.000    0.00
  33.600   18.89    5.37   -1.07   0.000   0.000   0.000    0.00
  33.700   18.89    2.82   -1.39   0.000   0.000   0.000    0.00
  33.800   18.37    4.14   -1.66   0.000   0.000   0.000    0.00
  33.900   18.15    2.24   -0.98   0.000   0.000   0.000    0.00
  34.000   17.92    2.96   -0.64   0.000   0.000   0.000    0.00
  34.100   17.74    1.13   -1.06   0.000   0.000   0.000    0.00
  34.200   18.63    1.00   -2.15   0.000   0.000   0.000    0.00
  34.300   18.31    0.42   -1.11   0.000   0.000   0.000    0.00
  34.400   17.83    0.46   -1.79   0.000   0.000   0.000    0.00
  34.500   18.00    0.22   -2.53   0.000   0.000   0.000    0.00
  34.600   17.41    1.95   -1.50   0.000   0.000   0.000    0.00
  34.700   17.71    0.15   -2.14   0.000   0.000   0.000    0.00
  34.800   17.61    1.76   -1.96   0.000   0.000   0.000    0.00
  34.900   16.72    1.26   -1.72   0.000   0.000   0.000    0.00
  35.000   17.37   -1.07   -1.75   0.000   0.000   0.000    0.00
  35.100   16.92    0.68   -0.93   0.000   0.000   0.000    0.00
  35.200   16.51   -4.86   -1.22   0.000   0.000   0.000    0.00
  35.300   16.11    0.11   -0.19   0.000   0.000   0.000    0.00
  35.400   16.06    0.00   -0.81   0.000   0.000   0.000    0.00
  35.500   16.08   -0.81   -1.01   0.000   0.000   0.000    0.00
  35.600   15.85    2.33   -1.43   0.000   0.000   0.000    0.00
  35.700   15.34    1.27   -1.03   0.000   0.000   0.000    0.00
  35.800   15.28   -1.41   -2.00   0.000   0.000   0.000    0.00
  35.900   16.56    1.46   -1.50   0.000   0.000   0.000    0.00
  36.000   16.54   -0.42   -2.05   0.000   0.000   0.000    0.00
  36.100   16.76    0.66   -1.40   0.000   0.000   0.000    0.00
  36.200   16.32    0.85   -1.11   0.000   0.000   0.000    0.00
  36.300   15.98    1.59   -0.78   0.000   0.000   0.000    0.00
  36.400   15.83   -0.41   -0.79   0.000   0.000   0.000    0.00
  36.500   15.24   -3.93   -1.73   0.000   0.000   0.000    0.00
  36.600   15.72   -7.54   -0.47   0.000   0.000   0.000    0.00
  36.700   14.94   -2.18    0.11   0.000   0.000   0.000    0.00
  36.800   14.34   -2.93    0.13   0.000   0.000   0.000    0.00
  36.900   14.28   -3.50    0.37   0.000   0.000   0.000    0.00
  37.000   14.68   -4.25    0.58   0.000   0.000   0.000    0.00
  37.100   15.58   -6.33    0.50   0.000   0.000   0.000    0.00
  37.200   14.51   -5.19    0.20   0.000   0.000   0.000    0.00
  37.300   14.31   -3.54    1.12   0.000   0.000   0.000    0.00
  37.400   14.11   -1.47    0.50   0.000   0.000   0.000    0.00
  37.500   14.61   -3.39    0.94   0.000   0.000   0.000    0.00
  37.600   14.28   -0.35    0.54   0.000   0.000   0.000    0.00
  37.700   14.32    0.79    0.27   0.000   0.000   0.000    0.00
  37.800   14.93    5.86    0.26   0.000   0.000   0.000    0.00
  37.900   14.74    7.73    1.33   0.000   0.000   0.000    0.00
  38.000   14.12    6.45    1.31   0.000   0.000   0.000    0.00
  38.100   14.96    5.00    1.37   0.000   0.000   0.000    0.00
  38.200   15.28    6.78    1.21   0.000   0.000   0.000    0.00
  38.300   15.41    8.02   -0.01   0.000   0.000   0.000    0.00
  38.400   14.78    8.78   -0.30   0.000   0.000   0.000    0.00
  38.500   15.50    3.31   -0.74   0.000   0.000   0.000    0.00
  38.600   15.59    4.81   -0.05   0.000   0.000   0.000    0.00
  38.700   15.41    6.29   -0.26   0.000   0.000   0.000    0.00
  38.800   16.73    8.84   -0.42   0.000   0.000   0.000    0.00
  38.900   17.49   13.61   -0.38   0.000   0.000   0.000    0.00
  39.000   17.15   13.62    0.15   0.000   0.000   0.000    0.00
  39.100   16.45   10.65    0.80   0.000   0.000   0.000    0.00
  39.200   16.17    8.03    0.75   0.000   0.000   0.000    0.00
  39.300   16.85    4.92    1.32   0.000   0.000   0.000    0.00
  39.400   17.35    1.76    0.87   0.000   0.000   0.000    0.00
  39.500   16.82    5.45    0.19   0.000   0.000   0.000    0.00
  39.600   17.23    4.06    0.21   0.000   0.000   0.000    0.00
  39.700   17.70    1.82   -0.28   0.000   0.000   0.000    0.00
  39.800   17.30    1.72    0.17   0.000   0.000   0.000    0.00
  39.900   17.90    3.48    0.70   0.000   0.000   0.000    0.00
  40.000   18.62   -1.60    0.63   0.000   0.000   0.000    0.00
  40.100   19.27   -4.81    0.85   0.000   0.000   0.000    0.00
  40.200   19.32   -6.87    1.21   0.000   0.000   0.000    0.00
  40.300   18.50   -7.35    1.09   0.000   0.000   0.000    0.00
  40.400   19.05   -2.19    1.45   0.000   0.000   0.000    0.00
  40.500   18.20   -1.99    1.42   0.000   0.000   0.000    0.00
  40.600   18.00   -4.70    1.41   0.000   0.000   0.000    0.00
  40.700   18.33   -1.84    2.99   0.000   0.000   0.000    0.00
  40.800   18.87   -0.95    1.72   0.000   0.000   0.000    0.00
  40.900   18.27   -3.10    0.89   0.000   0.000   0.000    0.00
  41.000   17.60   -2.51    0.50   0.000   0.000   0.000    0.00
  41.100   17.45   -3.16    0.26   0.000   0.000   0.000    0.00
  41.200   18.44   -1.33    0.44   0.000   0.000   0.000    0.00
  41.300   17.75    0.27   -0.19   0.000   0.000   0.000    0.00
  41.400   17.14    1.24   -0.66   0.000   0.000   0.000    0.00
  41.500   17.22   -0.16   -0.51   0.000   0.000   0.000    0.00
  41.600   17.87    0.66   -0.56   0.000   0.000   0.000    0.00
  41.700   18.87   -1.78    0.10   0.000   0.000   0.000    0.00
  41.800   19.07   -3.68   -1.17   0.000   0.000   0.000    0.00
  41.900   19.55   -4.33   -0.70   0.000   0.000   0.000    0.00
  42.000   19.25   -7.13    0.30   0.000   0.000   0.000    0.00
  42.100   18.68   -6.48    0.59   0.000   0.000   0.000    0.00
  42.200   18.75   -2.75    0.05   0.000   0.000   0.000    0.00
  42.300   20.06   -2.00   -0.10   0.000   0.000   0.000    0.00
  42.400   20.35    0.62    0.41   0.000   0.000   0.000    0.00
  42.500   20.50    0.86    0.14   0.000   0.000   0.000    0.00
  42.600   20.76    1.46   -0.37   0.000   0.000   0.000    0.00
  42.700   21.24   -2.61    0.20   0.000   0.000   0.000    0.00
  42.800   20.95   -2.95   -0.92   0.000   0.000   0.000    0.00
  42.900   21.59   -5.44   -0.84   0.000   0.000   0.000    0.00
  43.000   20.94   -2.46   -1.24   0.000   0.000   0.000    0.00
  43.100   20.24   -5.76   -0.79   0.000   0.000   0.000    0.00
  43.200   20.70   -5.97   -0.37   0.000   0.000   0.000    0.00
  43.300   20.93   -5.08   -0.74   0.000   0.000   0.000    0.00
  43.400   20.64   -3.92   -1.49   0.000   0.000   0.000    0.00
  43.500   20.60   -4.33   -1.54   0.000   0.000   0.000    0.00
  43.600   19.35   -4.88   -1.56   0.000   0.000   0.000    0.00
  43.700   19.52   -3.57   -1.01   0.000   0.000   0.000    0.00
  43.800   19.11   -3.07   -0.90   0.000   0.000   0.000    0.00
  43.900   19.00   -5.12   -0.05   0.000   0.000   0.000    0.00
  44.000   19.42   -5.47   -0.27   0.000   0.000   0.000    0.00
  44.100   19.16   -4.62    0.43   0.000   0.000   0.000    0.00
  44.200   19.60   -7.51    0.64   0.000   0.000   0.000    0.00
  44.300   20.48   -5.24    0.26   0.000   0.000   0.000    0.00
  44.400   20.38   -4.39    0.45   0.000   0.000   0.000    0.00
  44.500   21.16   -5.39    0.28   0.000   0.000   0.000    0.00
  44.600   21.14   -5.77    0.27   0.000   0.000   0.000    0.00
  44.700   20.50   -8.65   -0.09   0.000   0.000   0.000    0.00